Version 4
SHEET 1 920 756
WIRE -480 16 -528 16
WIRE 816 16 -480 16
WIRE -480 96 -480 16
WIRE -432 96 -480 96
WIRE -256 96 -256 -112
WIRE -256 96 -304 96
WIRE -32 96 -256 96
WIRE 288 96 288 -112
WIRE 288 96 240 96
WIRE 576 96 288 96
WIRE 816 96 816 16
WIRE 816 96 704 96
WIRE -480 128 -480 96
WIRE -432 128 -480 128
WIRE -224 128 -224 -112
WIRE -224 128 -304 128
WIRE -32 128 -224 128
WIRE 320 128 320 -112
WIRE 320 128 240 128
WIRE 576 128 320 128
WIRE 816 128 816 96
WIRE 816 128 704 128
WIRE -480 160 -480 128
WIRE -432 160 -480 160
WIRE -192 160 -192 -112
WIRE -192 160 -304 160
WIRE -32 160 -192 160
WIRE 352 160 352 -112
WIRE 352 160 240 160
WIRE 576 160 352 160
WIRE 816 160 816 128
WIRE 816 160 704 160
WIRE -480 192 -480 160
WIRE -432 192 -480 192
WIRE -160 192 -160 -112
WIRE -160 192 -304 192
WIRE -32 192 -160 192
WIRE 384 192 384 -112
WIRE 384 192 240 192
WIRE 576 192 384 192
WIRE 816 192 816 160
WIRE 816 192 704 192
WIRE -480 224 -480 192
WIRE -432 224 -480 224
WIRE -128 224 -128 -112
WIRE -128 224 -304 224
WIRE -32 224 -128 224
WIRE 416 224 416 -112
WIRE 416 224 240 224
WIRE 576 224 416 224
WIRE 816 224 816 192
WIRE 816 224 704 224
WIRE -480 256 -480 224
WIRE -432 256 -480 256
WIRE -96 256 -96 -112
WIRE -96 256 -304 256
WIRE -32 256 -96 256
WIRE 816 256 816 224
WIRE 816 256 240 256
WIRE 288 288 240 288
WIRE 576 288 288 288
WIRE 816 288 816 256
WIRE 816 288 704 288
WIRE 320 320 240 320
WIRE 576 320 320 320
WIRE 816 320 816 288
WIRE 816 320 704 320
WIRE 352 352 240 352
WIRE 576 352 352 352
WIRE 816 352 816 320
WIRE 816 352 704 352
WIRE 384 384 240 384
WIRE 576 384 384 384
WIRE 816 384 816 352
WIRE 816 384 704 384
WIRE 416 416 240 416
WIRE 576 416 416 416
WIRE 816 416 816 384
WIRE 816 416 704 416
WIRE 448 448 240 448
WIRE 576 448 448 448
WIRE 816 448 816 416
WIRE 816 448 704 448
WIRE 480 480 240 480
WIRE 576 480 480 480
WIRE 816 480 816 448
WIRE 816 480 704 480
WIRE 288 576 288 288
WIRE 320 576 320 320
WIRE 352 576 352 352
WIRE 384 576 384 384
WIRE 416 576 416 416
WIRE 448 576 448 448
WIRE 480 576 480 480
FLAG -528 16 VDD
IOPIN -528 16 In
FLAG -256 -112 Dsw1
IOPIN -256 -112 In
FLAG -224 -112 Dsw2
IOPIN -224 -112 In
FLAG -192 -112 Dsw3
IOPIN -192 -112 In
FLAG -160 -112 Dsw4
IOPIN -160 -112 In
FLAG -128 -112 Dsw5
IOPIN -128 -112 In
FLAG -96 -112 Dsw6
IOPIN -96 -112 In
FLAG 288 -112 Voutd1
IOPIN 288 -112 Out
FLAG 320 -112 Vind1
IOPIN 320 -112 In
FLAG 352 -112 Voutop1
IOPIN 352 -112 Out
FLAG 384 -112 Vinop1+
IOPIN 384 -112 In
FLAG 416 -112 Vinop1-
IOPIN 416 -112 In
FLAG 288 576 Vbiasop1
IOPIN 288 576 In
FLAG 320 576 Vb2cont
IOPIN 320 576 In
FLAG 384 576 Vbiasop2
IOPIN 384 576 In
FLAG 416 576 Voutop2
IOPIN 416 576 In
FLAG 448 576 VN
IOPIN 448 576 In
FLAG 352 576 Vb1cont
IOPIN 352 576 In
FLAG 480 576 Vinoutd2
IOPIN 480 576 BiDir
SYMBOL effectornew 96 256 R0
SYMATTR InstName X1
SYMBOL ESD -368 96 R0
SYMATTR InstName X2
SYMBOL ESD -368 128 R0
SYMATTR InstName X3
SYMBOL ESD -368 160 R0
SYMATTR InstName X4
SYMBOL ESD -368 192 R0
SYMATTR InstName X5
SYMBOL ESD -368 224 R0
SYMATTR InstName X6
SYMBOL ESD -368 256 R0
SYMATTR InstName X7
SYMBOL ESD 640 96 R180
SYMATTR InstName X8
SYMBOL ESD 640 128 R180
SYMATTR InstName X9
SYMBOL ESD 640 160 R180
SYMATTR InstName X10
SYMBOL ESD 640 192 R180
SYMATTR InstName X11
SYMBOL ESD 640 224 R180
SYMATTR InstName X12
SYMBOL ESD 640 288 R180
SYMATTR InstName X13
SYMBOL ESD 640 320 R180
SYMATTR InstName X14
SYMBOL ESD 640 352 R180
SYMATTR InstName X15
SYMBOL ESD 640 384 R180
SYMATTR InstName X16
SYMBOL ESD 640 416 R180
SYMATTR InstName X17
SYMBOL ESD 640 448 R180
SYMATTR InstName X18
SYMBOL ESD 640 480 R180
SYMATTR InstName X19
TEXT -384 360 Left 2 ;.tran 1
